<?xml version="1.0" encoding="UTF-8"?>

<!-- generated on 2025-10-17 15:12:59 by Eclipse SUMO netedit Version 1.24.0
-->

<routes xmlns:xsi="http://www.w3.org/2001/XMLSchema-instance" xsi:noNamespaceSchemaLocation="http://sumo.dlr.de/xsd/routes_file.xsd">
    <!-- Vehicles, persons and containers (sorted by depart) -->
    <trip id="t_0" depart="0.00" from="A4B4" to="E2D2"/>
    <trip id="t_1" depart="0.00" from="A2A3" to="C0B0"/>
</routes>
