<?xml version="1.0" encoding="UTF-8"?>

<!-- generated on 2025-10-17 15:17:56 by Eclipse SUMO duarouter Version 1.24.0
<duarouterConfiguration xmlns:xsi="http://www.w3.org/2001/XMLSchema-instance" xsi:noNamespaceSchemaLocation="http://sumo.dlr.de/xsd/duarouterConfiguration.xsd">

    <input>
        <net-file value="manhattan.net.xml"/>
        <route-files value="manhattan.rou.xml"/>
    </input>

    <output>
        <output-file value="routes.rou.xml"/>
    </output>

</duarouterConfiguration>
-->

<routes xmlns:xsi="http://www.w3.org/2001/XMLSchema-instance" xsi:noNamespaceSchemaLocation="http://sumo.dlr.de/xsd/routes_file.xsd">
    <vehicle id="t_0" depart="0.00">
        <route edges="A4B4 B4C4 C4D4 D4E4 E4E3 E3E2 E2D2"/>
    </vehicle>
    <vehicle id="t_1" depart="0.00">
        <route edges="A2A3 A3B3 B3C3 C3C2 C2C1 C1C0 C0B0"/>
    </vehicle>
</routes>
