<?xml version="1.0" encoding="UTF-8"?>

<!-- generated on 2025-11-04 15:59:38 by Eclipse SUMO netedit Version 1.24.0
-->

<additional xmlns:xsi="http://www.w3.org/2001/XMLSchema-instance" xsi:noNamespaceSchemaLocation="http://sumo.dlr.de/xsd/additional_file.xsd">
    <!-- StoppingPlaces -->
    <busStop id="bs_0" lane="B2A2_0" startPos="14.91" endPos="24.91"/>
</additional>
